opendss/LVTestCase/data/PV/PV_149.txt
New generator.m_gen7 Phases=1 Bus1=178.2 kV=0.23 kW=1 PF=0.95 Yearly=PV_Shape_88
New generator.m_gen10 Phases=1 Bus1=248.2 kV=0.23 kW=1 PF=0.95 Yearly=PV_Shape_87
New generator.m_gen32 Phases=1 Bus1=614.3 kV=0.23 kW=1 PF=0.95 Yearly=PV_Shape_9
New generator.m_gen29 Phases=1 Bus1=562.1 kV=0.23 kW=1 PF=0.95 Yearly=PV_Shape_128
New generator.m_gen23 Phases=1 Bus1=406.2 kV=0.23 kW=1 PF=0.95 Yearly=PV_Shape_154
New generator.m_gen31 Phases=1 Bus1=611.1 kV=0.23 kW=1 PF=0.95 Yearly=PV_Shape_116
New generator.m_gen5 Phases=1 Bus1=74.1 kV=0.23 kW=1 PF=0.95 Yearly=PV_Shape_159
New generator.m_gen17 Phases=1 Bus1=327.3 kV=0.23 kW=1 PF=0.95 Yearly=PV_Shape_13
New generator.m_gen34 Phases=1 Bus1=629.1 kV=0.23 kW=1 PF=0.95 Yearly=PV_Shape_16
New generator.m_gen40 Phases=1 Bus1=702.2 kV=0.23 kW=1 PF=0.95 Yearly=PV_Shape_118
New generator.m_gen55 Phases=1 Bus1=906.1 kV=0.23 kW=1 PF=0.95 Yearly=PV_Shape_32
